3
Properties=species:S:1:pos:R:3 #=T Bead:=T 100.00000=T 22860=T positionsangstrom=T CELLabcABC:=T 0=T 90.00000=T pbc="F F F" Step:=T cellatomic_unit=T
O      -2.09821000       0.92801900       1.89574000 
H      -1.30969000       1.64896000       1.48342000 
H      -1.84956000       0.10002900       1.20268000 
3
Properties=species:S:1:pos:R:3 #=T Bead:=T 100.00000=T 22860=T positionsangstrom=T CELLabcABC:=T 0=T 90.00000=T pbc="F F F" Step:=T cellatomic_unit=T
O      -2.17346042  1.10841022  1.70798335
H      -1.15970281  1.52033811  1.37013956
H      -1.92429677  0.04825967  1.50371709
